OpenDSS_files/IEEETestCases/13Bus/IEEE13Nodeckt_Power_seq_kVA.txt

SYMMETRICAL COMPONENT POWERS BY CIRCUIT ELEMENT (first 3 phases)                                     Excess Power

Element            Term    P1(kW)   Q1(kvar)       P2         Q2      P0      Q0       P_Norm      Q_Norm     P_Emerg    Q_Emerg

"Vsource.SOURCE"    1    -2684.7    -1056.6        0.0        0.0    -0.0     0.0
"Vsource.SOURCE"    2        0.0        0.0        0.0        0.0     0.0     0.0
"Transformer.SUB"   1     2684.7     1056.6       -0.0       -0.0     0.0     0.0        0.0        0.0        0.0        0.0
"Transformer.SUB"   2    -2684.7    -1056.5        0.0        0.0     0.0     0.0
"Transformer.REG1"  1        0.0        0.0        0.0        0.0     0.0     0.0        0.0        0.0        0.0        0.0
"Transformer.REG1"  2        0.0        0.0        0.0        0.0     0.0     0.0
"Transformer.REG2"  1        0.0        0.0        0.0        0.0     0.0     0.0        0.0        0.0        0.0        0.0
"Transformer.REG2"  2        0.0        0.0        0.0        0.0     0.0     0.0
"Transformer.REG3"  1        0.0        0.0        0.0        0.0     0.0     0.0        0.0        0.0        0.0        0.0
"Transformer.REG3"  2        0.0        0.0        0.0        0.0     0.0     0.0
"Transformer.XFM1"  1      305.5      225.1       -0.1        0.0     0.1    -0.2        0.0        0.0        0.0        0.0
"Transformer.XFM1"  2     -302.5     -219.5        0.2        0.0    -0.1     0.3
"Capacitor.CAP1"    1        0.0     -611.5       -0.0       -0.1     0.0    -0.4        0.0        0.0        0.0        0.0
"Capacitor.CAP1"    2        0.0        0.0        0.0        0.0     0.0     0.0
"Capacitor.CAP2"    1        0.0        0.0        0.0        0.0     0.0     0.0        0.0        0.0        0.0        0.0
"Capacitor.CAP2"    2        0.0        0.0        0.0        0.0     0.0     0.0
"Line.650632"       1     2682.7     1054.8        1.0        1.0     0.8     0.5      184.2       72.5        0.0        0.0
"Line.650632"       2    -2653.5     -954.9        0.7        1.3     0.5     1.6
"Line.632670"       1     2038.0      530.9       -1.8       -1.7    -0.9    -2.4        0.0        0.0        0.0        0.0
"Line.632670"       2    -2033.0     -512.3        2.9        3.3     1.8     4.3
"Line.670671"       1     1881.4      424.6       -3.3       -3.0    -0.9    -4.6        0.0        0.0        0.0        0.0
"Line.670671"       2    -1873.1     -393.2        5.4        6.2     2.6     8.5
"Line.671680"       1        0.0       -0.0       -0.0       -0.0     0.0    -0.0        0.0        0.0        0.0        0.0
"Line.671680"       2        0.0        0.0        0.0       -0.0     0.0    -0.0
"Line.632633"       1      305.9      225.6       -0.1        0.0     0.1    -0.2        0.0        0.0        0.0        0.0
"Line.632633"       2     -305.5     -225.1        0.1       -0.0    -0.1     0.2
"Line.632645"       1        0.0        0.0        0.0        0.0     0.0     0.0        0.0        0.0        0.0        0.0
"Line.632645"       2        0.0        0.0        0.0        0.0     0.0     0.0
"Line.645646"       1        0.0        0.0        0.0        0.0     0.0     0.0        0.0        0.0        0.0        0.0
"Line.645646"       2        0.0        0.0        0.0        0.0     0.0     0.0
"Line.692675"       1      644.5     -251.1       -2.8       -1.8    -2.0    -8.5        0.0        0.0        0.0        0.0
"Line.692675"       2     -643.3      252.0        3.0        2.0     3.0     8.8
"Line.671684"       1        0.0        0.0        0.0        0.0     0.0     0.0        0.0        0.0        0.0        0.0
"Line.671684"       2        0.0        0.0        0.0        0.0     0.0     0.0
"Line.684611"       1        0.0        0.0        0.0        0.0     0.0     0.0        0.0        0.0        0.0        0.0
"Line.684611"       2        0.0        0.0        0.0        0.0     0.0     0.0
"Line.684652"       1        0.0        0.0        0.0        0.0     0.0     0.0        0.0        0.0        0.0        0.0
"Line.684652"       2        0.0        0.0        0.0        0.0     0.0     0.0
"Line.671692"       1      773.5     -134.7       -3.4       -4.2    -2.0    -8.5        0.0        0.0        0.0        0.0
"Line.671692"       2     -773.5      134.7        3.4        4.2     2.0     8.5
"Load.671"          1      873.2      499.0        0.0       -0.0     0.0    -0.0
"Load.634A"         1        0.0        0.0        0.0        0.0     0.0     0.0
"Load.634B"         1        0.0        0.0        0.0        0.0     0.0     0.0
"Load.634C"         1        0.0        0.0        0.0        0.0     0.0     0.0
"Load.645"          1        0.0        0.0        0.0        0.0     0.0     0.0
"Load.646"          1        0.0        0.0        0.0        0.0     0.0     0.0
"Load.692"          1        0.0        0.0        0.0        0.0     0.0     0.0
"Load.675A"         1        0.0        0.0        0.0        0.0     0.0     0.0
"Load.675B"         1        0.0        0.0        0.0        0.0     0.0     0.0
"Load.675C"         1        0.0        0.0        0.0        0.0     0.0     0.0
"Load.611"          1        0.0        0.0        0.0        0.0     0.0     0.0
"Load.652"          1        0.0        0.0        0.0        0.0     0.0     0.0
"Load.670A"         1        0.0        0.0        0.0        0.0     0.0     0.0
"Load.670B"         1        0.0        0.0        0.0        0.0     0.0     0.0
"Load.670C"         1        0.0        0.0        0.0        0.0     0.0     0.0

Total Circuit Losses =   60.3 +j  174.9
